*load regulation
.include ../AE01.01.01.001.cir
.param VIN=60
.param ILOAD=3
.dc I1 0 {ILOAD} 0.001
.backanno


